Circuit: * C:\Users\Raul Alzate\Desktop\Tentactil\Circuits_Electronics\Regulador5V\Regulador5V.asc


Date: Mon Mar 30 22:04:28 2020
Total elapsed time: 0.088 seconds.

tnom = 27
temp = 27
method = trap
totiter = 177
traniter = 0
tranpoints = 0
accept = 0
rejected = 0
matrix size = 26
fillins = 24
solver = Normal
Matrix Compiler1: 2.37 KB object code size  1.5/0.6/[0.2]
Matrix Compiler2: 2.36 KB object code size  0.6/0.7/[0.2]

