Circuit: * C:\Users\Raul Alzate\Desktop\Circuits_Electronics\twoBridgeAnalisys\Draft2.asc

.OP point found by inspection.

Date: Sat Sep 19 12:23:01 2020
Total elapsed time: 0.067 seconds.

tnom = 27
temp = 27
method = modified trap
totiter = 2104
traniter = 2104
tranpoints = 1053
accept = 1052
rejected = 1
matrix size = 5
fillins = 0
solver = Normal
Matrix Compiler1: 284 bytes object code size  0.1/0.1/[0.0]
Matrix Compiler2: off  [0.0]/0.2/0.1

