Circuit: * C:\Users\Raul Alzate\Desktop\Circuits_Electronics\twoBridgeAnalisys\Draft1.asc

.OP point found by inspection.

Date: Tue Sep 15 19:29:37 2020
Total elapsed time: 0.132 seconds.

tnom = 27
temp = 27
method = modified trap
totiter = 2924
traniter = 2924
tranpoints = 1425
accept = 1319
rejected = 106
matrix size = 14
fillins = 12
solver = Normal
Matrix Compiler1: 1.34 KB object code size  0.4/0.2/[0.1]
Matrix Compiler2: 1.27 KB object code size  0.2/0.2/[0.1]

