Circuit: * C:\Users\Raul Alzate\Desktop\Circuits_Electronics\twoBridgeAnalisys\Draft4.asc

C2: Increased Cpar to 2.2e-009
C1: Increased Cpar to 2.2e-009
.OP point found by inspection.

Date: Sat Sep 19 15:07:13 2020
Total elapsed time: 0.677 seconds.

tnom = 27
temp = 27
method = modified trap
totiter = 176234
traniter = 176234
tranpoints = 82637
accept = 58657
rejected = 23980
matrix size = 14
fillins = 0
solver = Normal
Matrix Compiler1: 750 bytes object code size  0.3/0.2/[0.1]
Matrix Compiler2: 1.01 KB object code size  0.2/0.3/[0.1]

