Circuit: * C:\Users\Raul Alzate\Desktop\Circuits_Electronics\twoBridgeAnalisys\Solution.asc

.OP point found by inspection.

Date: Wed Sep 16 10:02:05 2020
Total elapsed time: 5.559 seconds.

tnom = 27
temp = 27
method = modified trap
totiter = 1539548
traniter = 1539548
tranpoints = 713396
accept = 509113
rejected = 204283
matrix size = 10
fillins = 0
solver = Normal
Matrix Compiler1: 534 bytes object code size  0.2/0.1/[0.1]
Matrix Compiler2: off  [0.1]/0.1/0.1

